data_image0
_cell_length_a       8.7324
_cell_length_b       8.7324
_cell_length_c       9.9072
_cell_angle_alpha    90
_cell_angle_beta     90
_cell_angle_gamma    120

_symmetry_space_group_name_H-M    "P 1"
_symmetry_int_tables_number       1

loop_
  _symmetry_equiv_pos_as_xyz
  'x, y, z'

loop_
  _atom_site_label
  _atom_site_occupancy
  _atom_site_fract_x
  _atom_site_fract_y
  _atom_site_fract_z
  _atom_site_thermal_displace_type
  _atom_site_B_iso_or_equiv
  _atom_site_type_symbol
  Se1      1.0000 0.63730  0.13730  0.25000  Biso   1.000  Se
  Se2      1.0000 0.63730  0.63730  0.75000  Biso   1.000  Se
  Se3      1.0000 0.63730  0.63730  0.25000  Biso   1.000  Se
  Se4      1.0000 0.86270  0.75000  0.91667  Biso   1.000  Se
  Se5      1.0000 0.86270  0.75000  0.41667  Biso   1.000  Se
  Se6      1.0000 0.86270  0.25000  0.91667  Biso   1.000  Se
  Se7      1.0000 0.86270  0.25000  0.41667  Biso   1.000  Se
  Se8      1.0000 0.36270  0.75000  0.91667  Biso   1.000  Se
  Se9      1.0000 0.36270  0.75000  0.41667  Biso   1.000  Se
  Se10     1.0000 0.36270  0.25000  0.91667  Biso   1.000  Se
  Se11     1.0000 0.36270  0.25000  0.41667  Biso   1.000  Se
  Se12     1.0000 0.75000  0.86270  0.08333  Biso   1.000  Se
  Se13     1.0000 0.75000  0.86270  0.58333  Biso   1.000  Se
  Se14     1.0000 0.75000  0.36270  0.08333  Biso   1.000  Se
  Se15     1.0000 0.75000  0.36270  0.58333  Biso   1.000  Se
  Se16     1.0000 0.25000  0.86270  0.08333  Biso   1.000  Se
  Se17     1.0000 0.25000  0.86270  0.58333  Biso   1.000  Se
  Se18     1.0000 0.25000  0.36270  0.08333  Biso   1.000  Se
  Se19     1.0000 0.25000  0.36270  0.58333  Biso   1.000  Se
  Se20     1.0000 0.13730  0.13730  0.75000  Biso   1.000  Se
  Se21     1.0000 0.13730  0.13730  0.25000  Biso   1.000  Se
  Se22     1.0000 0.13730  0.63730  0.75000  Biso   1.000  Se
  Se23     1.0000 0.13730  0.63730  0.25000  Biso   1.000  Se
  Se24     1.0000 0.63730  0.13730  0.75000  Biso   1.000  Se
