CRYSTAL
PRIMVEC
 0.01387118000000 9.83247244000000 0.00183419000000
 8.52430834000000 4.94603770000000 0.02455564000000
 0.02631679000000 -0.00302558000000 -11.07530826000000
PRIMCOORD
 72 1
  8     0.00571552000000     0.07477256000000     0.03609877000000
  8     1.81969466000000     0.07854725000000    -1.79633026000000
  8     0.02137328000000     1.86907247000000    -1.81095079000000
  8     1.80881121000000     1.88033321000000     0.04037649000000
  8    -1.54403866000000     0.98468164000000     1.86808632000000
  8    -0.91357534000000    -1.47958066000000     1.88255031000000
 14     0.91482151000000     0.97534754000000    -0.87689030000000
 14    -1.22552236000000    -0.25510615000000     0.95244042000000
 14     3.04879251000000    -0.23954754000000    -2.72064109000000
  8     0.01952048000000    -4.82975906000000     0.03784011000000
  8     1.83525864000000     5.01064918000000    -1.80259988000000
  8     0.02111324000000    -3.03097196000000    -1.80718645000000
  8     1.82752325000000    -3.02677047000000     0.03858871000000
  8    -1.53653266000000    -3.94351152000000     1.88127563000000
  8    -0.88283888000000     3.43030293000000     1.87015692000000
 14     0.92315653000000    -3.92504414000000    -0.87996017000000
 14    -1.20984268000000    -5.16929750000000     0.95096089000000
 14     3.05893804000000     4.67880844000000    -2.72713486000000
  8    -4.25760487000000    -2.39028650000000     0.01612469000000
  8    -2.43638947000000    -2.39006109000000    -1.81188048000000
  8    -4.23748372000000    -0.59843596000000    -1.83083596000000
  8    -2.44972192000000    -0.58971435000000     0.02702116000000
  8     2.71849550000000     3.45897257000000     1.88029224000000
  8     3.35413904000000     0.99843746000000     1.89449883000000
 14    -3.34411544000000    -1.49252384000000    -0.89437262000000
 14     3.03752120000000     2.22502560000000     0.96179242000000
 14    -1.20498106000000    -2.71445953000000    -2.73186372000000
  8    -4.24012975000000    -7.29456792000000     0.02508952000000
  8    -2.42590784000000     2.54174438000000    -1.81761779000000
  8    -4.24407825000000    -5.50398085000000    -1.82304708000000
  8    -2.43241175000000    -5.49380549000000     0.01638234000000
  8     2.72812138000000    -1.46085713000000     1.89014406000000
  8     3.38207209000000     5.91058689000000     1.89271580000000
 14    -3.33971114000000    -6.39444249000000    -0.89707457000000
 14     3.05227098000000    -2.69139472000000     0.96553045000000
 14    -1.19966216000000     2.20239244000000    -2.73721797000000
  8     0.01589274000000     0.07551131000000    -5.49909807000000
  8     1.80475612000000     0.08480834000000     3.74374781000000
  8     0.00168579000000     1.87271870000000     3.73287824000000
  8     1.82101139000000     1.87716336000000    -5.48694644000000
  8    -1.53864629000000     0.97344098000000    -3.65662745000000
  8    -0.88853461000000    -1.48316226000000    -3.65341712000000
 14     0.89747622000000     0.97699099000000     4.66736402000000
 14    -1.21506961000000    -0.25751569000000    -4.57833665000000
 14     3.03856985000000    -0.23254599000000     2.81957434000000
  8     0.03463219000000    -4.83080903000000    -5.49300379000000
  8     1.81567496000000     5.01112927000000     3.73381036000000
  8    -0.00190247000000    -3.03264859000000     3.74004065000000
  8     1.83474739000000    -3.03195869000000    -5.49747673000000
  8    -1.52675841000000    -3.95085042000000    -3.64943241000000
  8    -0.86053992000000     3.42390269000000    -3.66186467000000
 14     0.90416089000000    -3.92741171000000     4.66081679000000
 14    -1.19896162000000    -5.17425715000000    -4.57903287000000
 14     3.04558570000000     4.68313281000000     2.81313589000000
  8    -4.24730808000000    -2.39257009000000    -5.50597181000000
  8    -2.45385062000000    -2.38645915000000     3.73465689000000
  8    -4.26132710000000    -0.59927320000000     3.72181989000000
  8    -2.44074198000000    -0.59595842000000    -5.49896883000000
  8     2.71997201000000     3.45253259000000    -3.64799417000000
  8     3.36753807000000     0.99119283000000    -3.64071786000000
 14    -3.36327695000000    -1.49320295000000     4.65408220000000
 14     3.04402024000000     2.21999899000000    -4.56800068000000
 14    -1.22411834000000    -2.71234815000000     2.80744250000000
  8    -4.23106002000000    -7.29810756000000    -5.50511714000000
  8    -2.43684531000000     2.54665932000000     3.72353333000000
  8    -4.26483830000000    -5.49621883000000     3.73037059000000
  8    -2.42179291000000    -5.49963515000000    -5.50276257000000
  8     2.72945127000000    -1.47285066000000    -3.64293984000000
  8     3.39572276000000     5.90368591000000    -3.64956602000000
 14    -3.35599336000000    -6.39251030000000     4.65268353000000
 14     3.06096814000000    -2.69555871000000    -4.57086317000000
 14    -1.21442345000000     2.20889296000000     2.80197709000000
